LAMMPS (29 Oct 2020)
units           metal
boundary        p p p
atom_style      atomic

neighbor        2.0 bin
neigh_modify    every 50 delay 0 check no

lattice       	fcc 3.6342
Lattice spacing in x,y,z = 3.6342000 3.6342000 3.6342000
# region        	box block 0 3 0 3 0 3
# create_box    	1 box
Created orthogonal box = (0.0000000 0.0000000 0.0000000) to (10.902600 10.902600 10.902600)
# create_atoms    1 box
Created 108 atoms
#read_data	copper.lmp
mass		1 63.546

#replicate     	4 4 4
pair_style	deepmd copper-baseline.pb
pair_coeff

velocity        all create 330.0 23456789

fix             1 all nvt temp 330.0 330.0 0.5
timestep        0.0005
thermo_style    custom step pe ke etotal temp press vol
thermo          1

run             10000
  update every 50 steps, delay 0 steps, check no
Step PotEng KinEng TotEng Temp Press Volume
0    -402.5609    4.5641757   -397.99672          330    4374.8492    1295.9559
Averages over the last 5001 of 10001 rows, steps 5000 to 10000:
PotEng KinEng TotEng Temp Press Volume
-398.004 4.57619 -393.428 330.869 24072.7 1295.96
Loop time of 44.9591 on 1 procs for 10000 steps with 108 atoms

write_data	copper.lmp
System init for write_data ...

Please see the log.cite file for references relevant to this simulation
